 %nproc=           4
 # hf      sto-3g              
 
 Annealing
 
           0           1
           1  0    2.4858015821706578       0.76962921488223501       0.66590580365671981     
           8  0    2.8207931780516380        1.2557756693819635        1.4225239939320093     
           1  0    3.7563700850109423        1.0419935095389372        1.4272004975738328     
           1  0   0.14392201407996719      -0.43610031163213370       -2.9187025371161743     
           8  0   0.83988934475491051      -0.15593669552641540       -2.3202322761735261     
           1  0   0.84997673554275277      -0.84575896216602220       -1.6530948724969743     
 x  0   -3.5000000000000000       -3.5000000000000000       -3.5000000000000000     
 x  0    3.5000000000000000       -3.5000000000000000       -3.5000000000000000     
 x  0    3.5000000000000000        3.5000000000000000       -3.5000000000000000     
 x  0    3.5000000000000000        3.5000000000000000        3.5000000000000000     
 x  0   -3.5000000000000000        3.5000000000000000       -3.5000000000000000     
 x  0   -3.5000000000000000        3.5000000000000000        3.5000000000000000     
 x  0   -3.5000000000000000       -3.5000000000000000        3.5000000000000000     
 x  0    3.5000000000000000       -3.5000000000000000        3.5000000000000000     
 
