           6
 Configuration:    1  Energy(u.a.)=      0.00000000
  H      0.000000    0.753010   -0.475986
  O      0.000000    0.000000    0.118997
  H      0.000000   -0.753010   -0.475986
  H      0.000000    0.753010   -0.475986
  O      0.000000    0.000000    0.118997
  H      0.000000   -0.753010   -0.475986
           6
 Configuration:    2  Energy(u.a.)=   -149.78864420
  H     -0.145123   -0.026838   -0.987487
  O      0.044463   -0.882449   -0.596316
  H     -0.512683   -1.483284   -1.095930
  H      1.304882    1.068377    0.476751
  O      0.733165    0.323679    0.675733
  H      0.757606   -0.196525   -0.130381
           6
 Configuration:    5  Energy(u.a.)=   -149.80569360
  H      0.177128   -0.186052   -0.184807
  O      0.122683    0.219524    0.683279
  H      0.437270   -0.470898    1.270970
  H     -1.143117    2.219413    1.152222
  O     -1.201970    1.328860    0.799404
  H     -1.227427    1.467437   -0.149899
           6
 Configuration:    8  Energy(u.a.)=   -149.88136322
  H     -0.861256   -1.920090    0.475436
  O     -0.141897   -1.506979    0.958023
  H      0.623880   -2.025682    0.701972
  H     -0.147485    0.350748   -0.005422
  O     -1.026806    0.238051    0.362171
  H     -0.875190   -0.307345    1.137144
           6
 Configuration:   11  Energy(u.a.)=   -149.92092626
  H     -1.082102   -0.879176    1.609055
  O     -0.573541   -0.541532    0.868521
  H      0.176248   -1.138869    0.823428
  H      1.508142   -0.211541   -0.509969
  O      1.398298   -1.098427   -0.160117
  H      1.860755   -1.647234   -0.797277
           6
 Configuration:   12  Energy(u.a.)=   -149.92887608
  H     -0.735925   -1.598366    2.479432
  O     -0.736843   -0.972578    1.751821
  H     -0.243572   -1.428465    1.066344
  H      2.656965   -0.198622   -0.005336
  O      2.248538   -0.893701   -0.525991
  H      2.660793   -0.797271   -1.387255
           6
 Configuration:   14  Energy(u.a.)=   -149.92806728
  H     -0.902586    0.058703    1.667314
  O      0.043549    0.114041    1.516334
  H      0.306729   -0.803651    1.418321
  H      2.944998   -0.066801   -0.662398
  O      3.328502   -0.147981   -1.538391
  H      3.594500    0.749907   -1.748322
           6
 Configuration:   15  Energy(u.a.)=   -149.92914983
  H     -0.487738    1.134585    1.523326
  O      0.089671    0.945217    0.780516
  H     -0.504435    0.567729    0.128159
  H      2.235202   -0.570136   -0.302476
  O      3.161761   -0.423019   -0.504647
  H      3.185741    0.496161   -0.779532
           6
 Configuration:   16  Energy(u.a.)=   -149.92820936
  H     -1.044840    2.187052    2.070995
  O     -0.841138    1.431038    1.516038
  H     -1.668012    1.261794    1.059239
  H      2.347514   -1.365768    0.799273
  O      2.745894   -1.377355   -0.073760
  H      2.704567   -0.458840   -0.348809
           6
 Configuration:   21  Energy(u.a.)=   -149.92824114
  H     -0.213936   -0.285843    3.008133
  O     -0.789200   -0.814631    2.450923
  H     -1.581339   -0.277890    2.377068
  H      1.520135   -1.804383    0.174104
  O      2.467963   -1.660796    0.219204
  H      2.550124   -0.902565    0.801753
           6
 Configuration:   22  Energy(u.a.)=   -149.92938483
  H      0.031975   -1.042484    3.920373
  O      0.111139   -1.531644    3.098495
  H     -0.411723   -1.015009    2.481459
  H      1.588597   -2.360071    0.101952
  O      2.074498   -1.750794    0.662051
  H      1.416214   -1.459758    1.296865
           6
 Configuration:   27  Energy(u.a.)=   -149.92874936
  H     -1.080024   -2.720819    2.230412
  O     -0.199521   -3.100699    2.192534
  H      0.147020   -2.775106    1.358911
  H      0.729442   -0.200442   -1.221115
  O      0.974742   -1.128244   -1.227434
  H      1.181569   -1.296878   -2.149288
           6
 Configuration:   36  Energy(u.a.)=   -149.92991333
  H      2.776487    0.179382    1.491952
  O      2.844142   -0.769019    1.361615
  H      1.969784   -1.088140    1.595470
  H      3.043731   -1.844109   -1.087349
  O      2.545493   -1.531202   -1.845556
  H      2.163011   -0.707526   -1.535243
