           4
 Configuration:    1  Energy(u.a.)=      0.00000000
  Hg     0.601351   -1.228607   -0.117015
  O      0.321025   -0.917538    0.000000
  H      1.281025   -0.917297    0.000000
  H      0.000798   -0.012522    0.000000
           4
 Configuration:    2  Energy(u.a.)=      0.00000000
  Hg     0.508378   -1.117957    0.297572
  O      0.753161   -0.547038   -0.837761
  H      1.257788   -0.879817   -1.583556
  H      0.450940    0.344076   -1.027965
           4
 Configuration:    3  Energy(u.a.)=      0.00000000
  Hg     1.467947   -1.410988    0.491550
  O     -0.075290    0.345159   -0.612224
  H      0.189964   -0.317006   -1.254702
  H      0.462658    1.132465   -0.723408
           4
 Configuration:    4  Energy(u.a.)=      0.00000000
  Hg     1.268815   -0.757703    0.585400
  O     -0.630922   -0.053656   -0.661394
  H     -0.888185   -0.908143   -1.015325
  H     -0.028489    0.377404   -1.272018
           4
 Configuration:    5  Energy(u.a.)=      0.00000000
  Hg     0.308488   -1.254984    0.954243
  O     -1.121559   -0.216856   -0.684562
  H     -0.599611   -0.997213   -0.484029
  H     -0.776082    0.204820   -1.474774
           4
 Configuration:    6  Energy(u.a.)=      0.00000000
  Hg    -0.526825   -0.320545    0.046476
  O     -0.269870    0.324385   -1.041891
  H     -0.862116    0.155054   -0.305567
  H      0.233945   -0.469303   -1.236389
           4
 Configuration:    7  Energy(u.a.)=      0.00000000
  Hg     0.422286   -0.129402    0.451391
  O     -0.894838    0.484067   -0.615438
  H     -1.763690    0.076553   -0.590367
  H     -0.232169   -0.186175   -0.797769
           4
 Configuration:    8  Energy(u.a.)=      0.00000000
  Hg    -0.210097   -0.139733    0.672832
  O     -0.172980    0.707374   -0.570377
  H     -0.850039    0.634421   -1.247036
  H      0.573794    0.151021   -0.803614
