# pm3

Au Pt AB

0 1
 79                   0     0.03231  -2.93204  -0.23965
 79                   0    -0.02108   1.97276   1.25232
 78                   0    -0.01824   1.45121  -1.24282
 78                   0     0.00702  -0.49192   0.23015
 7                    0     0.8029   -0.00001   0.
 1                    0     1.16759   0.69011   0.64814
 1                    0     1.16748   0.21626  -0.92177
 1                    0     1.16752  -0.90641   0.27354
 5                    0    -0.83793   0.        0.00001
 1                    0    -1.15578  -0.26816   1.14085
 1                    0    -1.15583   1.12208  -0.33814
 1                    0    -1.15595  -0.85388  -0.80263

