           6
 Configuration:    1  Energy(u.a.)=      0.00000000
  H      0.000000    0.753010   -0.475986
  O      0.000000    0.000000    0.118997
  H      0.000000   -0.753010   -0.475986
  H      0.000000    0.753010   -0.475986
  O      0.000000    0.000000    0.118997
  H      0.000000   -0.753010   -0.475986
           6
 Configuration:    2  Energy(u.a.)=   -200.42930139
  H     -0.531715    0.642998   -0.864661
  O     -0.543973    0.482912    0.081516
  H     -0.362528   -0.456992    0.149978
  H      0.882431    0.615378   -0.460151
  O      0.485012   -0.252141   -0.562616
  H      0.899273   -0.593503   -1.358159
           6
 Configuration:   23  Energy(u.a.)=   -213.32867515
  H     -2.924454   -0.001299   -1.317948
  O     -2.052953    0.304428   -1.578806
  H     -1.728034    0.746728   -0.791515
  H     -0.394765   -0.186105   -1.540046
  O     -1.333921   -0.168825   -1.343279
  H     -1.421398   -0.797019   -0.623037
           6
 Configuration:  381  Energy(u.a.)=   -214.16271814
  H     -3.114968   -2.054620    1.422243
  O     -2.177771   -2.198852    1.274298
  H     -1.783578   -1.984575    2.122665
  H     -2.379569   -3.152644    1.295826
  O     -1.496382   -2.821087    1.119533
  H     -1.236665   -2.426294    1.954826
           6
 Configuration:  815  Energy(u.a.)=   -214.58091307
  H      2.093116   -0.342322   -1.327181
  O      2.463294   -0.546414   -2.188774
  H      2.193231    0.199586   -2.728755
  H      1.918070   -0.588285   -3.502732
  O      2.672172   -0.905181   -3.000799
  H      3.096492   -0.097237   -2.703801
           6
 Configuration:  863  Energy(u.a.)=   -215.86951133
  H      0.935327    1.024596   -1.572107
  O      0.664916    1.024113   -0.651288
  H      0.368749    1.925409   -0.506451
  H      0.628568    1.821891    0.136363
  O      1.051034    1.976462   -0.711374
  H      0.526072    1.451932   -1.319907
