6
converged SCF energy = -149.191421653375
H    0.7880090806623168    0.0    0.5467586374773117
O    0.0    0.0    -0.06890153619829288
H    -0.7880090806623168    0.0    0.5467586374773117
H    1.3171852063522302    0.5291761256899133    1.0759347631672251
O    0.5291761256899133    0.5291761256899133    0.46027458949162053
H    -0.25883295497240355    0.5291761256899133    1.0759347631672251
6
converged SCF energy = -149.168892902036
H    0.824729412187648    -0.018168228698024338    0.5269294325738952
O    0.03632822724689388    -0.019408468009331874    -0.08822729058453
H    -0.7512881088256684    -0.01917158361074647    0.5279351974768254
H    1.2972027493691778    0.5657014363508949    1.0575540767367073
O    0.5099329578027915    0.5655921827868776    0.4409488351053834
H    -0.2788139577735539    0.5646980809194081    1.05566280469384
6
converged SCF energy = -149.100001417069
H    0.7800960439232216    0.10338051362364235    0.6557684318428696
O    -0.005748816283362279    0.10626982891133688    0.03735492277259684
H    -0.7959027611850457    0.10891263164624033    0.6502541963947455
H    1.4194896942961643    0.7460081457499753    1.1878417694155539
O    0.6359269187781451    0.7465862963261685    0.5665328259575069
H    -0.1564781725136552    0.7514856405266951    1.1765048977589814
6
converged SCF energy = -149.034150848187
H    0.6804162607542962    0.1693234410738061    0.7270868258325706
O    -0.10399956623384071    0.1760280233720284    0.10689119572601358
H    -0.8955489213070401    0.17849953101241467    0.7179879726686932
H    1.4861702766582814    0.9004215514107532    1.2918937150408518
O    0.7058150905056163    0.902150579245843    0.6665629589094024
H    -0.08969193033245783    0.9110536236142632    1.2724384215705427
6
converged SCF energy = -149.223971442674
H    0.7491849193184511    0.41650118904403105    0.5503464562734732
O    -0.03030063518016992    0.41696067975770496    -0.07607019409017002
H    -0.8266847629394675    0.41611466576326644    0.5287168477435066
H    1.3049659605736978    0.8069380157621661    1.0318256416054095
O    0.5226322207335425    0.8057959570566801    0.408970621664031
H    -0.2709837735989364    0.8042687574282081    1.0173841996334176
6
converged SCF energy = -149.261719815165
H    0.8221709497950234    0.6308157313668462    0.3764083287936718
O    0.047017690031754725    0.6250651180155993    -0.25533538109270937
H    -0.753483142029661    0.6210292513577704    0.3439791359230609
H    1.1273524714280911    0.717148540007495    0.775559541374995
O    0.34314717780426884    0.7131240480575486    0.1550745523756924
H    -0.4485565652497848    0.7013395941594387    0.7658626257178861
6
converged SCF energy = -149.28769663948
H    0.6164485695300601    0.5717152653174414    0.4413801864886238
O    -0.1598304638577182    0.5719585899776808    -0.18900585695792244
H    -0.9592780027563362    0.5655781839017887    0.41169263948084317
H    1.1908975748304913    0.8710982186561649    0.7711964730335129
O    0.4098246130793416    0.865493214808164    0.1467852519542502
H    -0.3849383613016663    0.8548197910937643    0.7536078398955783
6
converged SCF energy = -149.195077741915
H    0.6098991627303101    0.5163017756656922    0.5063359657139995
O    -0.16749012782050918    0.5183997869609968    -0.12267695143638992
H    -0.9658870615085351    0.513618659279568    0.4794320401525048
H    1.2544225610356254    1.0250556955327543    0.7668162029432682
O    0.47650207409395995    1.0178624852833147    0.13849802369067477
H    -0.3213004486949623    1.0082905434818776    0.7413373664830354
6
SCF not converged.
SCF energy = -148.909895659592
H    0.6065655567920697    0.2853276186943025    0.5667663755819555
O    -0.17554865929878644    0.28928127573963497    -0.05635278015079635
H    -0.9693810864195999    0.28609562846263176    0.5517719520871293
H    1.3179275146976814    1.1790209272631842    0.7624186131069296
O    0.5431795503956754    1.1702318640233305    0.13021286745618973
H    -0.2576427461823482    1.1617518226336323    0.729051325521529
6
converged SCF energy = -148.917710080789
H    0.6031799096472947    0.05387735890418372    0.6453070953621345
O    -0.18360695637521918    0.0601635093988519    0.028117762642446996
H    -0.972826790555787    0.059036877702143685    0.6422240601948827
H    1.3814125210752068    1.3329938702394193    0.7580035860496829
O    0.6098570315315781    1.3226013555652754    0.12192978305950807
H    -0.19396517311353842    1.315203600144679    0.7167498375219861
6
converged SCF energy = -148.91889547777
H    0.5997428373226269    -0.17758297991867783    0.7238160687566565
O    -0.19166521584681534    -0.16895280976584015    0.11259223561675825
H    -0.9762216663769433    -0.16803476363897518    0.7326455347608071
H    1.4697685657498216    1.4874432894772995    0.7535612189153112
O    0.7014254067698983    1.4749144320191685    0.11364905428950085
H    -0.10537674971643411    1.4690743230148553    0.7044383010369049
6
converged SCF energy = -148.918958456599
H    0.5962540734920556    -0.4090532466625326    0.8022936830435303
O    -0.1997234039817783    -0.3980676828419807    0.19707063870493235
H    -0.979565982948936    -0.39511942941102096    0.8230359895735748
H    1.5640487567153532    1.3262102328789651    0.7410756956583651
O    0.7922768304972744    1.311558492535831    0.10534841052495365
H    -0.011333001158268829    1.3072883048616897    0.7004860119419039
6
converged SCF energy = -148.919021171587
H    0.5927133551859459    -0.6405332895710024    0.8807403275369391
O    -0.20778148705294355    -0.6271811110110052    0.28155297158457837
H    -0.9828600126204895    -0.6222172526186016    0.9133950404359984
H    1.6582314323235634    1.1685450257221917    0.5882433165508171
O    0.8831309337446315    1.1482106822268514    -0.043264001089958634
H    0.08276573335228234    1.1418054108180056    0.5562110018548158
6
converged SCF energy = -148.919059668909
H    0.3868928085071938    -0.699460270881211    0.9455465795060168
O    -0.4146283901414184    -0.6802814848328201    0.34789140891084397
H    -1.1885765596765983    -0.6779394846783056    0.9811326793322873
H    1.7217169819028801    1.322516509481629    0.5838062397377886
O    0.9498086064430102    1.3005801703112416    -0.05154564510654605
H    0.14643972273511774    1.295258702424236    0.5439087018639043
6
converged SCF energy = -148.919071181173
H    0.18105785656542672    -0.7583786894215593    1.0103147724829689
O    -0.6214742401318741    -0.7333816589619288    0.41423328233638024
H    -1.394295321692042    -0.7336734490352611    1.0488538393712656
H    1.7851827813689678    1.4764956125660202    0.5793516150134099
O    1.0164862662753655    1.4529497789368446    -0.05982521658970804
H    0.2101336664410148    1.4487024614725166    0.5315910544844682
6
converged SCF energy = -148.919075427595
H    -0.024791559772924264    -0.8172882494593653    1.0750449915699287
O    -0.8283190410916789    -0.7864816537952369    0.48057859126990515
H    -1.6000163641248542    -0.7894190231074887    1.1165584448356427
H    1.8486289171616115    1.630482290948848    0.5748793266235459
O    1.0831639027832505    1.6053195126337885    -0.06810271589921736
H    0.27384764402690254    1.6021366600870597    0.5192581811809649
6
converged SCF energy = -148.919077525113
H    -0.23065548271021902    -0.8761886714802869    1.1397373288159625
O    -1.0351627813059114    -0.8395815056501741    0.5469273402254444
H    -1.8057397361376986    -0.8451760991271918    1.1842464266041115
H    1.9120554763138284    1.7844765003750553    0.5703892593469541
O    1.1498415055089224    1.7576893759284284    -0.07637814345736194
H    0.33758173444531075    1.755561270680505    0.5069102038772008
6
converged SCF energy = -148.919078969655
H    -0.43653395921169175    -0.9350796602654553    1.2043918628726444
O    -1.2420054543740469    -0.8926812349658039    0.6132795176542655
H    -2.0114654923546325    -0.900944553329452    1.2519177001778898
H    1.9754625517410012    1.9384781964639137    0.5658812984940683
O    1.2165190692874184    1.9100593733312008    -0.08465149974866516
H    0.40133602133374835    1.9089762660438327    0.494547244953109
6
converged SCF energy = -148.919080178443
H    -0.6424270353747265    -0.9939609268202262    1.2690086901811959
O    -1.4488470539646094    -0.945780867478708    0.6796351276965165
H    -2.217193687171596    -0.9567242662172741    1.319572197977711
H    2.0388502209689894    2.0924873395962824    0.5613553300615043
O    1.2831965730918349    2.0624295146762854    -0.09292278532030313
H    0.46511057175690285    2.062381624282317    0.4821694270968656
6
converged SCF energy = -148.919081244409
H    -0.8483347564978747    -1.0528321825386227    1.3335879039411962
O    -1.655687573804819    -0.9988804289310427    0.7459941690139525
H    -2.4229243748517586    -1.0125151178165244    1.387209848044648
H    2.102218578295163    2.2465038742247323    0.5568112454695873
O    1.3498740117358834    2.21479979388176    -0.10119199549118248
H    0.5289054683087835    2.2157773083268544    0.4697768791642029
6
converged SCF energy = -148.919081159093
H    -0.588773454413155    -0.7906770782986384    1.6056570109025843
O    -1.3904663382953641    -0.7348732145135499    1.0105349987270784
H    -2.1633592828530195    -0.7362748562961623    1.6450665521661891
H    2.361867747734181    2.509690458418963    0.8277519642561503
O    1.6150459064280323    2.478754722249495    0.16345091937341955
H    0.7891658315802896    2.491815975319635    0.7271416735057422
6
converged SCF energy = -148.919081057407
H    -0.32929828890844726    -0.5284130276311975    1.877702347711629
O    -1.125249812715118    -0.470871845380483    1.2750864296082574
H    -1.9036333927402092    -0.4600507647096779    1.9027787644483276
H    2.6214496270167964    2.7729753046677263    1.0986608498829642
O    1.8802117531317624    2.7427051268842484    0.4281044456096976
H    1.0495894788243787    2.7678281810554703    0.9843698770631368
6
converged SCF energy = -148.919080939796
H    -0.06990808462701054    -0.2660395062499869    2.149722215537763
O    -0.8600381296529135    -0.2068761932030707    1.5396484700010302
H    -1.6437455862679897    -0.18384549875517694    2.16034805129275
H    2.8809653565151727    3.036358709834273    1.3695364625126234
O    2.1453714202321175    3.006651153039918    0.6927685683055679
H    1.3101773586646017    3.0438113231977932    1.2414631663587428
6
converged SCF energy = -148.919080806726
H    0.18939833699809402    -0.003555999071209989    2.421714916443152
O    -0.5948314364330805    0.057113887559894154    1.8042211205416885
H    -1.3836947982425116    0.09233830559900282    2.417776005963579
H    3.1404160916699126    3.299840948330851    1.6403773698870692
O    2.410524777521811    3.2705929469677857    0.95744327013515
H    1.5709303823135203    3.3197628060305115    1.4984232486474018
6
converged SCF energy = -148.919080658682
H    0.4486221791582996    0.2590379677410678    2.6936787741499355
O    -0.3296298739864222    0.321098527832632    2.0688043953235296
H    -1.123479994998146    0.3684980019101007    2.6750642701984804
H    3.399802997435096    3.563422271947868    1.9111821476580106
O    2.675671690939123    3.534530655895142    1.2221285313618349
H    1.8318494180733775    3.595680040968183    1.755251861537336
6
converged SCF energy = -148.91908049617
H    0.7077646637939924    0.5217428485652439    2.9656121032139895
O    -0.06443358206403342    0.5850778650703482    2.333398290145478
H    -0.8631001803425716    0.6446309541074253    2.9322145015466643
H    3.659127269287206    3.827102904936997    2.1819493795690352
O    2.9408120437524667    3.7984644226522235    1.486824329844929
H    2.092935312383186    3.8715604421797116    2.0119507727025736
6
converged SCF energy = -148.919080319715
H    0.9668270313682368    0.7845590723764704    3.237513230437153
O    0.20075730078393064    0.8490520379363039    2.598002803679053
H    -0.6025543956674931    0.9207345323492452    3.189228394291988
H    3.9183901007680553    4.090883064604932    2.452677653014962
O    3.2059457048871987    4.062394406878545    1.7515306357529254
H    2.3541888575464944    4.147401447705194    2.2685217736602024
6
converged SCF energy = -148.919081180814
H    0.9139474249469087    0.831378982706916    3.370263116742562
O    0.1492442422197503    0.9002867609104231    2.729578700601081
H    -0.6547446374729232    0.9744500453149098    3.3195765389305087
H    4.046051749964823    4.281111838156455    2.5385780811717376
O    3.337927111472132    4.251476869221672    1.8331158032061683
H    2.483188980269039    4.340992894081228    2.3443939750630616
6
converged SCF energy = -148.919081926619
H    0.8610471641106188    0.8782023733403795    3.503003532827657
O    0.09773165223680094    0.9515209810049534    2.861154974552826
H    -0.7069215676213634    1.0281700596943668    3.449928169564701
H    4.173688275751888    4.471370074448804    2.624450317201317
O    3.469907169440496    4.440558587918211    1.9147048928740962
H    2.612235631675575    4.534566680892762    2.4202321151082526
6
converged SCF energy = -148.919082575984
H    0.8081262694715512    0.9250293551686559    3.6357344500944797
O    0.04621951744053307    1.0027547008873818    2.9927316254513934
H    -0.7590851832753551    1.0818945168318832    3.5802833161082255
H    4.301299934020384    4.661657717618797    2.7102940773302886
O    3.6018858523234405    4.6296395835868545    1.996297899417779
H    2.741328975989203    4.728122536742629    2.4960365623088094
6
converged SCF energy = -148.919083143509
H    0.7551847783098481    0.9718600232876967    3.768455845107904
O    -0.005292159735604128    1.0539879073258132    3.1243086584952686
H    -0.8112354657643213    1.1356233424995004    3.710642014060207
H    4.428886982278004    4.851974709891596    2.796109079636373
O    3.7338631337415045    4.8187198768932955    2.0778948172436627
H    2.8704691743976576    4.921660191399301    2.571807687368036
6
converged SCF energy = -148.919083640984
H    0.7022227228623636    1.0186944888769338    3.9011676791801526
O    -0.056803382125128574    1.1052206029895222    3.255886062999567
H    -0.863372402351452    1.1893564777254768    3.8410042825501978
H    4.5564496849240275    5.042320991698729    2.8818950440621114
O    3.865838992698094    5.007799488537064    2.159495640505318
H    2.9996563903345894    5.115179375887814    2.6475458631380544
6
converged SCF energy = -148.919084078186
H    0.6492401359302519    1.0655328573309593    4.033869929599858
O    -0.10831415258480102    1.1564527852672568    3.387463844145021
H    -0.9154959804953262    1.2430938585610674    3.9713701566353508
H    4.683988291950742    5.232696506517184    2.9676516925726775
O    3.997813392425913    5.196878444589239    2.2411003631001134
H    3.128890768230124    5.308679827504851    2.7232514645148003
6
converged SCF energy = -148.919084463343
H    0.5962370508330518    1.1123752340818083    4.166562568599521
O    -0.15982447398248004    1.2076844515608125    3.51904200181134
H    -0.9676061879967643    1.2968354208130126    4.101739665992407
H    4.811503071139878    5.423101180269179    3.053378753953026
O    4.129786312090662    5.385956755251279    2.322708983962469
H    3.2581724655595394    5.502161269261468    2.7989248742007216
6
converged SCF energy = -148.919084919453
H    0.4384622676357619    1.0865834905011638    4.252405741239411
O    -0.31776301132295726    1.1874266359577539    3.6059154101943425
H    -1.1248897293637945    1.2758531691048947    4.18963021205972
H    4.89479446239236    5.5886868500206806    3.0770156775253095
O    4.217018734974291    5.549887783319513    2.342774261911509
H    3.3429165063123514    5.668017155260122    2.8139287015485377
6
converged SCF energy = -148.91908530476
H    0.2806719368282579    1.0607968622599198    4.338221861495098
O    -0.4757005393381632    1.1671689414416155    3.6927906732767304
H    -1.282173648580865    1.2548638801628913    4.277518372678438
H    4.978067079529188    5.754285290450262    3.100628977222452
O    4.304250569258852    5.713818819583978    2.3628420595563355
H    3.4276886634392363    5.833860140489946    2.828916160099981
6
converged SCF energy = -148.919085632088
H    0.12286604406321919    1.0350155397424352    4.424010967267024
O    -0.6336370669963919    1.1469113607943269    3.779667790966702
H    -1.439457978104646    1.233867572742518    4.365404111405189
H    5.061321059130239    5.919896445897696    3.124218515276235
O    4.391481801318494    5.877749871642824    2.3829123736388387
H    3.512489016630166    5.999690160013118    2.8438874393360662
6
converged SCF energy = -148.919085911604
H    -0.03495540829331044    1.0092396974394362    4.509773102369935
O    -0.7915725874623653    1.1266538708820955    3.86654676839598
H    -1.5967427342163913    1.21286425038419    4.453287397548877
H    5.144556538482468    6.0855202602203695    3.1477841548199152
O    4.478712417550211    6.041680947093606    2.4029852008054395
H    3.5973176445054005    6.165507149383703    2.858842729351623
6
converged SCF energy = -148.919086151446
H    -0.19279242285321094    0.9834695258160965    4.595508296089415
O    -0.9495070991933271    1.106396464456503    3.9534275947562385
H    -1.7540279387908875    1.1918539322442834    4.541168184224985
H    5.227773660866457    6.251156676914302    3.1713257598871403
O    4.565942409666123    6.2056120535212775    2.423060537608889
H    3.682174629904272    6.3313110447170695    2.873782220827818
6
converged SCF energy = -148.919086358178
H    -0.3506450016291388    0.9577052094457248    4.681216594416996
O    -1.1074406006938982    1.0861391289729025    4.040310275047595
H    -1.9113136135501712    1.1708366328584192    4.62904644065446
H    5.310972554264727    6.416805643932822    3.1948431955589096
O    4.653171753538625    6.369543203836523    2.443138380503974
H    3.7670600386492152    6.497101787715748    2.8887061049533673
6
converged SCF energy = -148.919086537132
H    -0.508513146057568    0.9319469328246421    4.766898039014777
O    -1.2653730905050895    1.065881851884591    4.127194808912073
H    -2.068599780214876    1.1498123668718507    4.716922130857024
H    5.394153363590631    6.582467093117094    3.218336332755394
O    4.74040044090301    6.533474395035887    2.4632187311404854
H    3.851973951578986    6.662879305060475    2.903614579197041
6
converged SCF energy = -148.919086704566
H    -0.6989441291311197    0.8836304801521523    4.837954445622974
O    -1.456383942406429    1.023405490910842    4.20018988382183
H    -2.2585709945369348    1.105546839766962    4.791581879759209
H    5.46357800943251    6.740390977689305    3.2225284760156545
O    4.81372451691207    6.689591293235195    2.464171310179607
H    3.923043547965994    6.820070025550199    2.89966926956321
6
converged SCF energy = -148.91908684904
H    -0.8893908600788496    0.8353250882439137    4.9089761247502395
O    -1.6473937394563964    0.9809292410019634    4.2731877745805535
H    -2.4485431090364256    1.061268489073558    4.866231662920484
H    5.5329855730810555    6.898322935122725    3.226698279756702
O    4.8870481055105435    6.845708409750343    2.4651260505066044
H    3.9941379627387827    6.977249208064511    2.8957119954359745
6
converged SCF energy = -148.919086974245
H    -1.079853372038831    0.7870310183938045    4.979963169343175
O    -1.8384024879787457    0.9384530872232101    4.346188480329226
H    -2.638516179353469    1.0169773851168689    4.9408714010286126
H    5.602376170137652    7.0562629118955735    3.230845636861283
O    4.960371195571075    7.001825749790658    2.466082949048741
H    4.065257256909577    7.13441682344261    2.8917429127031267
6
converged SCF energy = -148.919087083195
H    -1.2703316812557435    0.7387485156500928    5.0509156789567475
O    -2.0294101785071565    0.8959769987238055    4.419192005364086
H    -2.828490244918562    0.9726735833639218    5.015501020913085
H    5.67174991675275    7.214210854226546    3.234970440938551
O    5.0336937759824485    7.157943318558236    2.4670420026634376
H    4.136401490685465    7.291572842898028    2.887762177634602
6
converged SCF energy = -148.91908717837
H    -1.4608258087354757    0.6904778406853332    5.121833739284293
O    -2.2204168068834083    0.8535009605381902    4.492198337974455
H    -3.018465350725192    0.9283571552503603    5.090120433603771
H    5.741106934913868    7.372166708199551    3.239072586319255
O    5.107015840941697    7.314061121236179    2.4680032081402565
H    4.207570728758211    7.44871723808053    2.8837699468558067
6
converged SCF energy = -148.919087261816
H    -1.6513357747122244    0.6422192479212878    5.192717453394508
O    -2.4114223690095193    0.8110249524054093    4.565207482191109
H    -3.2084415415824252    0.8840281679367841    5.164729566629883
H    5.810447331151248    7.5301304245655185    3.243151968204519
O    5.180337368798991    7.4701791683265615    2.4689665621961536
H    4.278765019075221    7.605849986124477    2.8797663772741724
6
converged SCF energy = -148.919087335233
H    -1.8418615986433156    0.5939729913395089    5.263566920693223
O    -2.602426860838788    0.7685489540634879    4.638219436619722
H    -3.3984188622622837    0.8396866890401823    5.239328342716392
H    5.879771228786738    7.6881019382016555    3.2472084874615095
O    5.253658353760359    7.626297454410996    2.4699320667680076
H    4.349984424851167    7.762971049004514    2.875751631854807
6
converged SCF energy = -148.919087401516
H    -2.042848412195876    0.5385022868032953    5.329682522804207
O    -2.8040486568558363    0.7189407863281753    4.706776513782494
H    -3.5988843023377255    0.7878715989280841    5.309670037053591
H    5.944668443829733    7.843585154516709    3.245058427586617
O    5.322516115453697    7.77990808612823    2.4647588236432
H    4.41677203422809    7.917330773255579    2.8656807924151892
6
converged SCF energy = -148.919087460037
H    -2.243851421460894    0.4830464960104085    5.395761346132182
O    -3.0056693661159923    0.669332588594951    4.775336756381262
H    -3.799350701157488    0.7360420712002278    5.379998268298316
H    6.0095495420257    7.999074763283037    3.2428860455194175
O    5.391373366472635    7.933519017850359    2.4595876216247428
H    4.483583865888245    8.07167934337052    2.8555998786792887
6
converged SCF energy = -148.919087511868
H    -2.444870664074756    0.4276059045778088    5.461803517670839
O    -3.207288994036493    0.6197243427089602    4.8439001623433775
H    -3.999818124251645    0.6841982029684263    5.450312942353984
H    6.074414635669707    8.154570711047754    3.2406912454265044
O    5.460230096420658    8.087130254094571    2.4544184574133943
H    4.550419972550334    8.226016741105319    2.845509038846146
6
converged SCF energy = -148.919087557908
H    -2.645906160699551    0.37218078161538    5.527809171302997
O    -3.408907530250368    0.570116014606616    4.912466734719256
H    -4.200286620928416    0.6323400766318873    5.5206139714960045
H    6.139263837550677    8.310072944162371    3.238473932166221
O    5.529086294917327    8.240741799368656    2.449251327647034
H    4.617280406184006    8.380342948560704    2.835408421421092
6
converged SCF energy = -148.919087598919
H    -2.8469579366351714    0.31677141160596417    5.593778427305581
O    -3.610524969707038    0.5205075861165257    4.981036460521714
H    -4.400756246050843    0.5804677906990314    5.590901252431364
H    6.204097266239661    8.465581408911255    3.2362340112812316
O    5.597941956890365    8.394353658159412    2.4440862289028287
H    4.684165223300019    8.534657948237777    2.8252981751887396
6
converged SCF energy = -148.919087635548
H    -3.0480260163360535    0.2613780725219297    5.659711423588638
O    -3.8121413074211628    0.4708990337798419    5.0496093424743265
H    -4.601227054291921    0.5285814395368754    5.6611746985958415
H    6.268915024791984    8.62109605629807    3.2339713891507618
O    5.66679706142036    8.547965840270107    2.4389231576921664
H    4.751074463727432    8.688961728109604    2.815178449141199
6
converged SCF energy = -148.919087668346
H    -3.249110423376793    0.20600104163563143    5.725608294655428
O    -4.013756538465923    0.4212903341444494    5.118185377844835
H    -4.801699100275642    0.4766811181055941    5.731434218852662
H    6.333717233013746    8.776616821532366    3.2316859777909626
O    5.735651603443808    8.70157833958146    2.4337621157526446
H    4.818008182602721    8.84325426094313    2.805049398257605
6
converged SCF energy = -148.919087698001
H    -3.4536395464951113    0.1482671477902203    5.7899218453313095
O    -4.218856465569202    0.36934012739133454    5.185301662812088
H    -5.0056133864774806    0.4223165566368119    5.800283618648079
H    6.397056004992599    8.931321552114623    3.227349091880329
O    5.803040707632875    8.854368017954574    2.426587116796944
H    4.883502167910837    8.996633772730922    2.7929272451480545
6
converged SCF energy = -148.919087724658
H    -3.658185184394359    0.09055089461096794    5.8541986555952
O    -4.42395526903965    0.31738972058074033    5.2524212173744464
H    -5.209528897650923    0.3679375298189468    5.869117863764124
H    6.460379487031194    9.086031880424976    3.2229894839810975
O    5.87042924607141    9.007158041394556    2.419414103967111
H    4.949020422765133    9.15000220988108    2.7807962901900423
6
converged SCF energy = -148.919087748673
H    -3.8627473721785375    0.03285257151245949    5.918438874408441
O    -4.629052954244097    0.26543909446629593    5.319544038154243
H    -5.4134457026585485    0.31354414829075133    5.937936858849881
H    6.52368779258573    9.24074775234865    3.218607064938058
O    5.9378172086657806    9.15994841415072    2.4122430736161484
H    5.014562993915771    9.303359559063116    2.7686566804240083
6
converged SCF energy = -148.919087770354
H    -4.067326127950789    -0.024827548778140623    5.982642657694226
O    -4.834149510768108    0.21348821390245365    5.3866701268850425
H    -5.617363854120838    0.25913650800706717    6.006740515041443
H    6.586981035573672    9.395469113602376    3.2142017462893007
O    6.005204585339857    9.312739140461773    2.4050740220368048
H    5.080129927373861    9.456705807283532    2.756508563153438
6
converged SCF energy = -148.919087789967
H    -4.271921474380399    -0.08248917832689066    6.04681014781845
O    -5.039244933519213    0.1615370596447962    5.453799469252569
H    -5.8212834101963455    0.2047147210562832    6.075528728020471
H    6.650259335662043    9.550195909866432    3.20977344025637
O    6.0725913713270785    9.465530224544354    2.397906945463926
H    5.145721273701834    9.610040941935383    2.7443520859174018
6
converged SCF energy = -148.919087807744
H    -4.476533433271444    -0.14013203588361667    6.110941504831605
O    -5.244339217472168    0.10958560717124657    5.520932066643053
H    -6.025204428841754    0.1502788954032162    6.144301410308702
H    6.713522796966027    9.70492809155672    3.2053220599003645
O    6.1399775460149995    9.618321675929943    2.390741840069111
H    5.211337066796756    9.763364955893396    2.7321873964192904
6
converged SCF energy = -148.919087823885
H    -4.68116202549929    -0.1977558410698245    6.175036885428049
O    -5.449432357664539    0.057633831975879575    5.588067914976591
H    -6.229126967945592    0.0958291396280003    6.213058469968085
H    6.776771540331947    9.859665593337493    3.2008475239273326
O    6.207363104648733    9.771113488226307    2.3835787072521217
H    5.276977355856478    9.91667782680204    2.7200146483104675
6
converged SCF energy = -148.919087838603
H    -4.8869418484346685    -0.2561450133883613    6.238582871746411
O    -5.655678052303998    0.004906789842433147    5.654722986545295
H    -6.434189364403271    0.040554247340331515    6.281337027533798
H    6.839526355482609    10.0141353829708    3.19567879581619
O    6.274263254203575    9.923633278392325    2.37575028914271
H    5.3421572009587095    10.069681414435824    2.7071775181372977
6
converged SCF energy = -148.91908785201
H    -5.092738399215524    -0.31451429437656225    6.30209291682096
O    -5.861922586832161    -0.047820627698897084    5.7213813409667384
H    -6.63925335175507    -0.014734577794803218    6.34959942082647
H    6.902266689985882    10.168610252176022    3.190486824089212
O    6.341162773575101    10.076153447269759    2.367923820501319
H    5.40736152899294    10.222673911581062    2.6943326895771174
6
converged SCF energy = -148.919087864242
H    -5.298551707821703    -0.3728633985148114    6.365567186356096
O    -6.06816596689082    -0.1005484401660134    5.788042973570587
H    -6.844318999623511    -0.07003721693392712    6.417845558269368
H    6.964992659721081    10.323090145944244    3.185271525037449
O    6.408061652856559    10.228673998965615    2.360099297293987
H    5.472590381320025    10.375655308060155    2.681480310366025
6
converged SCF energy = -148.919087875419
H    -5.504381787229248    -0.43119205711314085    6.4290058530112955
O    -6.274408182342221    -0.1532766829659913    5.854707884794006
H    -7.049386361364712    -0.12535356593402816    6.486075354838783
H    7.027704381001953    10.477575009114588    3.18003281565744
O    6.474959882160559    10.381194937575327    2.3522767154279154
H    5.537843798559131    10.528625594031224    2.668620528468473
6
converged SCF energy = -148.919087885647
H    -5.710228654930655    -0.48949998640094494    6.4924090758581094
O    -6.480649228375078    -0.2060053755955522    5.921376059024229
H    -7.254455495851025    -0.18068350453880305    6.554288710120463
H    7.090401975864921    10.63206478650966    3.1747706136389597
O    6.541857456911127    10.533716267171473    2.3444560707539983
H    5.603121825878272    10.681584760031585    2.655753492049391
6
converged SCF energy = -148.91908789502
H    -5.916092327556368    -0.5477869094237573    6.555777031625634
O    -6.686889100246096    -0.25873454281906433    5.988047496346851
H    -7.4595264617377035    -0.23602691664207667    6.622485540601157
H    7.153085550764285    10.786559427694087    3.1694848375251303
O    6.608754356688083    10.686237997140028    2.3366373590612217
H    5.668424491783787    10.834532802096666    2.6428793494029685
6
converged SCF energy = -148.919087903621
H    -6.1219728207824655    -0.606052550229225    6.61910989365926
O    -6.893127793277865    -0.311464209375155    6.0547221913791684
H    -7.664599317588599    -0.2913836855441184    6.6906657583698905
H    7.2157552288708    10.941058866512304    3.164175411523095
O    6.675650576930966    10.838760120942394    2.3288205813674896
H    5.733751840063127    10.98746970101379    2.629998254740356
6
converged SCF energy = -148.91908791153
H    -6.328246797558138    -0.6645568432253728    6.68223687157284
O    -7.099748315857705    -0.3644516663775944    6.121239500146589
H    -7.870051824996001    -0.3470231356608744    6.758675387732801
H    7.278251966663532    11.095472131741113    3.1586196584264288
O    6.742385181414396    10.991192231688888    2.3207842022846035
H    5.7989427867686905    11.140296594925537    2.6168924553028274
6
converged SCF energy = -148.919087918805
H    -6.534537641772957    -0.7230392058457721    6.745329018420965
O    -7.306367644452541    -0.41743967390474407    6.187760068695826
H    -8.07550632134819    -0.4026757782120695    6.826668108826583
H    7.3407350443599215    11.249890043790218    3.1530401207270686
O    6.80911908878538    11.143624750889751    2.312749739989629
H    5.864158458155928    11.293112359019535    2.6037800171646306
6
converged SCF energy = -148.919087925505
H    -6.740845377390551    -0.7814993595118102    6.8083865143950435
O    -7.512985785098719    -0.47042825142205325    6.254283891090829
H    -8.280962876021462    -0.45834148824575965    6.894643835676917
H    7.403204580560837    11.40431254671537    3.1474367198708793
O    6.875852289297508    11.296057682546621    2.3047171900511136
H    5.929398890319235    11.445916985725926    2.5906610892160065
6
converged SCF energy = -148.919087931681
H    -6.947170011378481    -0.839937042600413    6.8714095466046246
O    -7.719602728054145    -0.523417434274111    6.320810966502426
H    -8.48642154210054    -0.5140201555438254    6.962602488909416
H    7.465660694276018    11.558739584433699    3.1418093780242384
O    6.942584773225711    11.448491030648682    2.2966865479798653
H    5.994664118605395    11.598710467811136    2.5775358205431442
6
converged SCF energy = -148.919087937382
H    -7.153511555180471    -0.8983519785165635    6.934398288510591
O    -7.9262184689072335    -0.5764072418860062    6.387341278052557
H    -8.691882378162473    -0.5697116538113299    7.0305439738031685
H    7.5281035102122305    11.713171100862361    3.1361580180593602
O    7.009316536158319    11.600924799161579    2.288657809231653
H    6.059954182904272    11.751492798415244    2.56440436039997
6
converged SCF energy = -148.919087942649
H    -7.359870019391139    -0.9567438975956143    6.997352931174747
O    -8.132833003314577    -0.6293976989405858    6.453874824562516
H    -8.897345442551314    -0.6254158609461798    7.098468212579344
H    7.590533137465251    11.867607044664382    3.1304825637184766
O    7.076047557841242    11.753358997362938    2.2806309692013635
H    6.125269106444479    11.904263976194903    2.5512668581367266
6
converged SCF energy = -148.91908794752
H    -7.566245413635272    -1.015112531287576    7.060273662218077
O    -8.339446327001175    -0.6823888300854858    6.520411599386233
H    -9.102810793495195    -0.6811326542905081    7.166375123103484
H    7.652949701833266    12.022047348810394    3.1247829444300397
O    7.142777833882465    11.905793618605106    2.2726060285132363
H    6.190608927712509    12.057023984542363    2.5381234689914995
6
converged SCF energy = -148.91908795203
H    -7.772762950518853    -1.0735440032648524    7.123103692100046
O    -8.546185753156504    -0.7354661801548572    6.5868982141926775
H    -9.308403979932983    -0.7369515049214929    7.234213384134332
H    7.715300404340948    12.176461641542426    3.1189851373947075
O    7.20945386577896    12.058198621211922    2.2645093342828297
H    6.255920083554429    12.209740003525582    2.524901915320733
6
converged SCF energy = -148.919087956208
H    -7.9792974374828285    -1.131951621469653    7.185900163027277
O    -8.752923954629896    -0.7885442542808678    6.653388047875043
H    -9.513999559896746    -0.7927827170807377    7.302034114044667
H    7.777638285076323    12.330880172009838    3.113163021375268
O    7.276129133484459    12.210604060388262    2.2564145235654802
H    6.3212561904263636    12.362444855531578    2.5116747754699897
6
converged SCF energy = -148.919087960082
H    -8.185848892167979    -1.1903351157398507    7.248663268538224
O    -8.95966093789979    -0.8416230717243401    6.719881093256743
H    -9.719597602068752    -0.8486261606476506    7.369837233202983
H    7.839963465344056    12.485302883368146    3.107316522959974
O    7.342803627414063    12.363009940038802    2.2483215915326724
H    6.386617279155345    12.515138535429635    2.498442199489329
6
converged SCF energy = -148.919087963677
H    -8.392417315232555    -1.2486942329870128    7.311393209039284
O    -9.166396693666892    -0.8947026676152502    6.78637734826878
H    -9.925198158814885    -0.9044817202758181    7.437622668616539
H    7.902276066832074    12.639729718646699    3.101445569472868
O    7.409477338006228    12.515416264054938    2.240230533299197
H    6.452003379814529    12.66782103842618    2.485204337592855
6
