           6
 Configuration:    1  Energy(u.a.)=      0.00000000
  H      0.000000    0.753010   -0.475986
  O      0.000000    0.000000    0.118997
  H      0.000000   -0.753010   -0.475986
  H      0.000000    0.753010   -0.475986
  O      0.000000    0.000000    0.118997
  H      0.000000   -0.753010   -0.475986
           6
 Configuration:    2  Energy(u.a.)=     -2.01080510
  H     -0.298858    1.093671   -0.084856
  O     -0.164205    0.823232    0.826056
  H      0.588255    0.229962    0.772544
  H     -0.094296    0.393609    0.005004
  O     -0.784893   -0.219011   -0.257297
  H     -0.935379   -0.002040   -1.179960
           6
 Configuration:    3  Energy(u.a.)=     -2.29249383
  H     -0.517011    0.351110   -0.004200
  O     -0.078505    0.767869    0.740819
  H      0.455309    0.060119    1.108461
  H      0.312616   -0.436712   -0.061496
  O     -0.451040   -0.698479    0.457481
  H     -1.167092   -0.189679    0.070931
           6
 Configuration:    4  Energy(u.a.)=     -6.33991988
  H      0.361350   -0.282709    0.856190
  O      0.539185    0.134994    1.701724
  H      1.377333   -0.249654    1.967397
  H     -1.065560    0.027378   -0.386978
  O     -1.044434   -0.767715    0.150060
  H     -1.835924   -0.693512    0.687710
           6
 Configuration:    8  Energy(u.a.)=     -7.50530775
  H     -0.820443   -1.632683    1.715399
  O     -0.205522   -0.916320    1.887809
  H      0.256440   -0.814535    1.052789
  H     -0.210585    0.136581   -0.372740
  O     -0.472308    0.625966    0.410224
  H     -1.429414    0.555529    0.406383
           6
 Configuration:   10  Energy(u.a.)=    -10.75134483
  H      0.402631   -2.072879    1.466597
  O      1.353232   -1.943039    1.443615
  H      1.458459   -1.172293    0.881560
  H     -0.145777    2.600277   -0.272793
  O      0.598906    2.374348    0.288842
  H      0.333999    2.701908    1.151139
           6
 Configuration:   29  Energy(u.a.)=    -11.23355688
  H      1.839909   -0.541098    2.748743
  O      1.807764    0.365825    2.436515
  H      1.659149    0.270673    1.493176
  H     -2.088440    1.452362    3.452133
  O     -2.063239    0.900589    2.667315
  H     -2.886489    1.111270    2.221333
